iidm/iidm-serde/src/test/resources/V1_18/secondaryVoltageControlNodeBreakerRoundTripRef.xml
<?xml version="1.0" encoding="UTF-8"?>
<iidm:network xmlns:iidm="http://www.powsybl.org/schema/iidm/1_18" xmlns:svc="http://www.powsybl.org/schema/iidm/ext/secondary_voltage_control/1_1" id="network" caseDate="2023-01-07T20:43:11.819+01:00" forecastDistance="0" sourceFormat="test" minimumValidationLevel="STEADY_STATE_HYPOTHESIS">
    <iidm:substation id="substation1" country="FR" tso="TSO1" geographicalTags="region1">
        <iidm:voltageLevel id="voltageLevel1" nominalV="400.0" topologyKind="NODE_BREAKER">
            <iidm:nodeBreakerTopology>
                <iidm:busbarSection id="voltageLevel1BusbarSection1" node="0"/>
                <iidm:busbarSection id="voltageLevel1BusbarSection2" node="1"/>
                <iidm:switch id="voltageLevel1Breaker1" kind="BREAKER" retained="true" open="false" node1="0" node2="1"/>
                <iidm:switch id="load1Disconnector1" kind="DISCONNECTOR" open="false" node1="2" node2="3"/>
                <iidm:switch id="load1Breaker1" kind="DISCONNECTOR" open="false" node1="3" node2="0"/>
                <iidm:switch id="generator1Disconnector1" kind="DISCONNECTOR" open="false" node1="5" node2="6"/>
                <iidm:switch id="generator1Breaker1" kind="DISCONNECTOR" open="false" node1="6" node2="1"/>
            </iidm:nodeBreakerTopology>
            <iidm:generator id="generator1" energySource="NUCLEAR" minP="200.0" maxP="900.0" targetP="900.0" localTargetV="380.0" node="5">
                <iidm:reactiveCapabilityCurve>
                    <iidm:point p="200.0" minQ="300.0" maxQ="500.0"/>
                    <iidm:point p="900.0" minQ="300.0" maxQ="500.0"/>
                </iidm:reactiveCapabilityCurve>
                <iidm:voltageRegulation mode="VOLTAGE" regulating="true"/>
            </iidm:generator>
            <iidm:load id="load1" loadType="UNDEFINED" p0="10.0" q0="3.0" node="2"/>
        </iidm:voltageLevel>
    </iidm:substation>
    <iidm:extension id="network">
        <svc:secondaryVoltageControl>
            <svc:controlZone name="z1">
                <svc:pilotPoint targetV="400.0" activeBusOrBusbarSectionId="voltageLevel1BusbarSection2">
                    <svc:busbarSection>voltageLevel1BusbarSection1</svc:busbarSection>
                    <svc:busbarSection>voltageLevel1BusbarSection2</svc:busbarSection>
                </svc:pilotPoint>
                <svc:controlUnit participate="false">generator1</svc:controlUnit>
            </svc:controlZone>
        </svc:secondaryVoltageControl>
    </iidm:extension>
</iidm:network>
